19
	Energy:       2.3944881
C         -3.91158        1.59293       -0.30650
C         -4.26502        0.16749        0.12087
C         -3.16833       -0.82473       -0.26601
H         -5.21086       -0.13654       -0.34093
O         -4.44779        0.11861        1.53443
C         -1.79253       -0.39107        0.24125
H         -3.13486       -0.92246       -1.35795
H         -3.39743       -1.81432        0.14661
C         -2.53586        2.02227        0.20375
H         -4.66149        2.29619        0.07413
H         -3.92605        1.65793       -1.40130
C         -1.45115        1.02861       -0.20212
H         -2.55890        2.11218        1.29667
H         -2.29161        3.01500       -0.19103
H         -0.49238        1.33067        0.23413
H         -1.32706        1.04986       -1.29188
H         -1.02966       -1.08552       -0.12865
H         -1.76816       -0.44737        1.33641
H         -5.15638        0.74510        1.76002
