6
	Energy:      -6.6087536
O          0.12908       -0.26336        0.64798
H          0.89795        0.28805        0.85518
H          0.10833       -0.20468       -0.33302
O          0.31020        0.07569       -2.07524
H          0.64083       -0.57862       -2.71449
H         -0.26065        0.64232       -2.62218
